data_Felix.cif.15-08-2016
_chemical_name_systematic 'Tricalcium dimanganate(IV)' 
_chemical_formula_structural 'Ca3 (Mn2 O7)' 
_chemical_formula_sum 'Ca3 Mn2 O7' 

_publ_section_comment
;
R Beanland 8 September 2015 
Based on Lobanov structure 
;
_cell_length_a 19.4462
_cell_length_b 5.2453
_cell_length_c 5.2399
_cell_angle_alpha 90.
_cell_angle_beta 90.
_cell_angle_gamma 90.
_cell_formula_units_Z 4
_symmetry_space_group_name_H-M 'C m c 21' 
_symmetry_Int_Tables_number 36

loop_
_symmetry_equiv_pos_site_id
_symmetry_equiv_pos_as_xyz
1 x,-y,z+1/2
2 -x,-y,z+1/2
3 -x,y,z
4 x,y,z
5 x+1/2,-y+1/2,z+1/2
6 -x+1/2,-y+1/2,z+1/2
7 -x+1/2,y+1/2,z
8 x+1/2,y+1/2,z

loop_
_atom_site_label
_atom_site_type_symbol
_atom_site_symmetry_multiplicity
_atom_site_Wyckoff_symbol
_atom_site_fract_x
_atom_site_fract_y
_atom_site_fract_z
_atom_site_B_iso_or_equiv
_atom_site_occupancy
Ca1 Ca2+  6  a  0.0000  0.2500  0.7500  1.0  1.0
Ca2 Ca2+  6  b  0.1865  0.2500  0.7500  1.0  1.0
Mn1 Mn4+  8  b  0.0979  0.2500  0.2500  0.45  1.0
O1 O2-  4  a  0.0000  0.2500  0.2500  1.7  1.0
O2 O2-  8  b  0.0966  0.5000  0.0000  1.7  1.0
O3 O2-  8  b  0.0960  0.0000  0.0000  1.7  1.0
O4 O2-  8  b  0.1970  0.2500  0.2500  1.7  1.0
#End of Felix.cif.24-10-2018
